version 2
run General-0-20210528-12:24:05-19691
attr configname General
attr datetime 20210528-12:24:05
attr experiment General
attr inifile omnetpp.ini
attr iterationvars ""
attr iterationvarsf ""
attr measurement ""
attr network Network
attr processid 19691
attr repetition 0
attr replication #0
attr resultdir results
attr runnumber 0
attr seedset 0
param Network.node[0].app.interArrivalTime exponential(1)
param Network.node[0].app.packetByteSize 125000
param Network.node[0].app.destination 5
param Network.node[2].app.interArrivalTime exponential(1)
param Network.node[2].app.packetByteSize 125000
param Network.node[2].app.destination 5

vector 0 Network.node[0].lnk[0] "Buffer Size" ETV
vector 1 Network.node[1].lnk[0] "Buffer Size" ETV
vector 2 Network.node[2].lnk[0] "Buffer Size" ETV
vector 3 Network.node[3].lnk[0] "Buffer Size" ETV
vector 4 Network.node[4].lnk[0] "Buffer Size" ETV
vector 5 Network.node[5].lnk[0] "Buffer Size" ETV
vector 6 Network.node[6].lnk[0] "Buffer Size" ETV
vector 7 Network.node[7].lnk[0] "Buffer Size" ETV
vector 8 Network.node[2].lnk[1] "Buffer Size" ETV
vector 9 Network.node[3].lnk[1] "Buffer Size" ETV
vector 10 Network.node[4].lnk[1] "Buffer Size" ETV
vector 11 Network.node[5].app Delay ETV
vector 12 Network.node[5].app HopsVector ETV
vector 13 Network.node[5].app SourceVector ETV
0	1	0	1
0	9	0	0
0	42	0.000108	1
0	50	0.000108	0
0	83	0.000216	1
0	91	0.000216	0
0	124	0.000324	1
0	132	0.000324	0
0	165	0.000432	1
0	173	0.000432	0
0	206	0.00054	1
0	214	0.00054	0
0	247	0.000648	1
0	255	0.000648	0
0	288	0.000756	1
0	296	0.000756	0
0	331	0.898560388484	1
0	332	0.898560388484	0
0	335	1.821783519955	1
0	340	1.898560388484	0
0	365	3.773328855839	1
0	366	3.773328855839	0
0	388	4.324377342509	1
0	393	4.773328855839	0
0	413	5.301383768902	1
1	2	0	1
1	10	0	0
1	43	0.000108	1
1	51	0.000108	0
1	84	0.000216	1
1	92	0.000216	0
1	125	0.000324	1
1	133	0.000324	0
1	166	0.000432	1
1	174	0.000432	0
1	207	0.00054	1
1	215	0.00054	0
1	248	0.000648	1
1	256	0.000648	0
1	281	0.000756	1
1	289	0.000756	0
2	3	0	1
2	11	0	0
2	44	0.000108	1
2	52	0.000108	0
2	85	0.000216	1
2	93	0.000216	0
2	126	0.000324	1
2	134	0.000324	0
2	167	0.000432	1
2	175	0.000432	0
2	208	0.00054	1
2	216	0.00054	0
2	241	0.000648	1
2	249	0.000648	0
2	282	0.000756	1
2	290	0.000756	0
3	4	0	1
3	12	0	0
3	45	0.000108	1
3	53	0.000108	0
3	86	0.000216	1
3	94	0.000216	0
3	127	0.000324	1
3	135	0.000324	0
3	168	0.000432	1
3	176	0.000432	0
3	201	0.00054	1
3	209	0.00054	0
3	242	0.000648	1
3	250	0.000648	0
3	283	0.000756	1
3	291	0.000756	0
4	5	0	1
4	13	0	0
4	46	0.000108	1
4	54	0.000108	0
4	87	0.000216	1
4	95	0.000216	0
4	128	0.000324	1
4	136	0.000324	0
4	161	0.000432	1
4	169	0.000432	0
4	202	0.00054	1
4	210	0.00054	0
4	243	0.000648	1
4	251	0.000648	0
4	284	0.000756	1
4	292	0.000756	0
5	6	0	1
5	14	0	0
5	47	0.000108	1
5	55	0.000108	0
5	88	0.000216	1
5	96	0.000216	0
5	121	0.000324	1
5	129	0.000324	0
5	162	0.000432	1
5	170	0.000432	0
5	203	0.00054	1
5	211	0.00054	0
5	244	0.000648	1
5	252	0.000648	0
5	285	0.000756	1
5	293	0.000756	0
6	7	0	1
6	15	0	0
6	48	0.000108	1
6	56	0.000108	0
6	81	0.000216	1
6	89	0.000216	0
6	122	0.000324	1
6	130	0.000324	0
6	163	0.000432	1
6	171	0.000432	0
6	204	0.00054	1
6	212	0.00054	0
6	245	0.000648	1
6	253	0.000648	0
6	286	0.000756	1
6	294	0.000756	0
6	361	2.898760388484	1
6	362	2.898760388484	0
6	381	3.898760388484	1
6	382	3.898760388484	0
7	8	0	1
7	16	0	0
7	41	0.000108	1
7	49	0.000108	0
7	82	0.000216	1
7	90	0.000216	0
7	123	0.000324	1
7	131	0.000324	0
7	164	0.000432	1
7	172	0.000432	0
7	205	0.00054	1
7	213	0.00054	0
7	246	0.000648	1
7	254	0.000648	0
7	287	0.000756	1
7	295	0.000756	0
7	343	1.898660388484	1
7	344	1.898660388484	0
7	357	2.898660388484	1
7	358	2.898660388484	0
7	396	4.773428855839	1
7	397	4.773428855839	0
8	338	1.859604212075	1
8	339	1.859604212075	0
8	347	2.646805352057	1
8	348	2.859604212075	0
8	391	4.52576940626	1
8	392	4.52576940626	0
9	351	2.859704212075	1
9	352	2.859704212075	0
9	371	3.859704212075	1
9	372	3.859704212075	0
9	417	5.52586940626	1
9	418	5.52586940626	0
10	375	3.859804212075	1
10	376	3.859804212075	0
10	402	4.859804212075	1
10	403	4.859804212075	0
11	385	3.898860388484	3.0003
11	406	4.859904212075	3.0003
11	410	4.898860388484	3.077076868529
12	385	3.898860388484	3
12	406	4.859904212075	3
12	410	4.898860388484	3
13	385	3.898860388484	0
13	406	4.859904212075	2
13	410	4.898860388484	0

