version 2
run General-0-20210516-15:21:11-6074
attr configname General
attr datetime 20210516-15:21:11
attr experiment General
attr inifile omnetpp.ini
attr iterationvars ""
attr iterationvarsf ""
attr measurement ""
attr network Network
attr processid 6074
attr repetition 0
attr replication #0
attr resultdir results
attr runnumber 0
attr seedset 0
param Network.nodeTx.gen.generationInterval exponential(0.3)
param Network.nodeTx.gen.packetByteSize 12500
param Network.queue.bufferSize 200
param Network.nodeRx.queue.bufferSize 200
param Network.nodeTx.queue.bufferSize 2000000

vector 0 Network.nodeTx.gen packetGen ETV
vector 1 Network.queue_0 bufferSize ETV
vector 2 Network.nodeRx.traRx rxBufferSize ETV
vector 3 Network.queue_1 bufferSize ETV
vector 4 Network.nodeTx.traTx txBufferSize ETV
0	1	0.23876235137	1
0	11	0.508330467915	1
0	21	0.885109695329	1
0	31	1.442990958951	1
0	41	1.719957898392	1
0	51	2.305421499157	1
0	61	2.541581841152	1
0	71	3.105271057413	1
0	75	3.270585603414	1
0	91	3.563687531332	1
0	101	3.875135321531	1
0	105	4.020673770647	1
0	115	4.193329529712	1
0	123	4.299277271453	1
0	133	4.966334598064	1
0	135	4.983849998792	1
0	137	5.97832368277	1
0	139	6.073830525023	1
0	141	6.218911156508	1
0	143	6.413745060983	1
0	145	6.88441389627	1
0	147	7.386077256367	1
0	149	7.611879490361	1
0	151	7.808044260527	1
0	153	8.059874116397	1
0	155	8.209535719102	1
0	157	8.989011944857	1
0	159	9.531522724139	1
0	161	9.553628330779	1
0	163	9.677101729652	1
0	165	9.704450037489	1
0	167	10.017833789981	1
0	169	10.023961466501	1
0	171	10.161735907678	1
0	173	10.69798220671	1
0	175	11.643033185313	1
0	177	12.094768462904	1
0	179	12.140137719003	1
0	181	12.752231996386	1
0	183	13.36449966116	1
0	185	14.518066221903	1
0	187	14.710578973706	1
0	189	15.192150840824	1
0	191	15.676351463292	1
0	193	15.86203030118	1
0	195	16.082519627537	1
0	197	16.537480419734	1
0	199	16.878262102247	1
0	201	16.916024425078	1
0	203	17.298592735745	1
0	205	17.60502229805	1
0	207	17.866718656563	1
0	209	17.913137560713	1
0	211	18.144387958253	1
0	213	19.012714101649	1
0	215	19.439123505677	1
0	217	19.660471693204	1
0	219	19.694055541394	1
0	221	19.854725257462	1
0	223	20.047233668071	1
0	225	20.139417773717	1
0	227	20.201278758326	1
0	229	20.647755206052	1
0	231	21.048342261439	1
0	233	21.231066988394	1
0	235	21.304281535615	1
0	237	21.556381947299	1
0	239	21.599965355487	1
0	241	21.605655926247	1
0	243	21.72318716945	1
0	245	22.01160145117	1
0	247	22.060242398004	1
0	249	22.344341401156	1
0	251	22.419773980778	1
0	253	22.707638373988	1
0	255	22.85420548878	1
0	257	23.717579995163	1
0	259	24.416254007427	1
0	261	24.759795693837	1
0	263	24.939119516883	1
0	265	25.072775065398	1
0	267	25.357623440447	1
0	269	25.529983162469	1
0	271	26.227888480977	1
0	273	26.586720820814	1
0	275	26.618089188547	1
0	277	26.636723775687	1
0	279	27.686787881023	1
0	281	28.016461621288	1
0	283	28.334111860734	1
0	285	28.66729109444	1
0	287	28.723518914245	1
0	289	28.79438092607	1
0	291	28.927402134656	1
0	293	28.968810741185	1
0	295	29.385523548122	1
0	297	29.499212137407	1
0	299	29.780030605338	1
0	301	29.915661223405	1
0	303	30.033594990596	1
0	305	30.286923328654	1
0	307	30.298678275578	1
0	309	30.47187556882	1
0	311	30.77363687037	1
0	313	32.109985924223	1
0	315	33.067869916839	1
0	317	33.100160449286	1
0	319	33.417508373292	1
0	321	33.487798828925	1
0	323	33.790204602551	1
0	325	33.842978666179	1
0	327	35.451008771252	1
0	329	35.76863158578	1
0	331	36.030206341868	1
0	333	36.117830501848	1
0	335	36.278349904973	1
0	337	36.46673237927	1
0	339	36.659866679751	1
0	341	36.743949782295	1
0	343	37.037009004516	1
0	345	37.08894724136	1
0	347	37.212697610337	1
0	349	37.247784233275	1
0	351	37.584734723735	1
0	353	37.90515638288	1
0	355	38.019623135892	1
0	357	38.064236816668	1
0	359	38.51622741665	1
0	361	38.581891595602	1
0	363	39.478048563158	1
0	365	39.61605275048	1
0	367	39.941933564743	1
0	369	40.458033062058	1
0	371	40.462132435587	1
0	373	40.492775900044	1
0	375	40.785306480291	1
0	377	41.331252156076	1
0	379	41.667196465802	1
0	381	41.697506898395	1
0	383	42.769583410098	1
0	385	43.894292847973	1
0	387	44.525889238211	1
0	389	44.71559021713	1
0	391	44.92936529513	1
0	393	46.057943480481	1
0	395	46.075141558408	1
0	397	46.353685107478	1
0	399	46.53366917347	1
0	401	46.936942755116	1
0	403	46.94299979356	1
0	405	46.954992683277	1
0	407	47.129856199937	1
0	409	47.229579272226	1
0	411	48.39705030908	1
0	413	48.435467338673	1
0	415	48.569093177249	1
0	417	48.674446004063	1
0	419	48.871139889372	1
0	421	48.9090564803	1
0	423	49.259118538265	1
0	425	49.373928822924	1
0	427	50.011199982025	1
0	429	50.171665294752	1
0	431	50.922838829678	1
0	433	50.942728050123	1
0	435	51.016046684548	1
0	437	51.369803542668	1
0	439	51.619656597488	1
0	441	51.870485857079	1
0	443	52.471458013831	1
0	445	52.56398246586	1
0	447	52.777356847025	1
0	449	52.999584532159	1
0	451	53.745259239252	1
0	453	53.774854331777	1
0	455	54.536945684165	1
0	457	54.794314376487	1
0	459	54.820345521189	1
0	461	55.615122299792	1
0	463	55.712724424451	1
0	465	55.827792488681	1
0	467	55.83061271388	1
0	469	56.160866486907	1
0	471	56.715064782208	1
0	473	56.757463996276	1
0	475	57.06999819253	1
0	477	57.447978335563	1
0	479	58.000363077009	1
0	481	58.102859327117	1
0	483	58.195114644246	1
0	485	58.255819775816	1
0	487	58.407979812793	1
0	489	58.672918525381	1
0	491	58.914357745321	1
0	493	58.92045148296	1
0	495	58.974527158555	1
0	497	59.504249480279	1
0	499	59.642768749092	1
0	501	59.64418071124	1
0	503	59.691683163109	1
0	505	60.031473405701	1
0	507	60.284398315346	1
0	509	60.378814813602	1
0	511	60.743767409633	1
0	513	61.142394771758	1
0	515	61.244498793229	1
0	517	62.227041746543	1
0	519	62.397412992587	1
0	521	62.483219284339	1
0	523	62.906526607127	1
0	525	63.164044497476	1
0	527	63.315347639452	1
0	529	63.584324900688	1
0	531	64.263444973446	1
0	533	64.518211216915	1
0	535	64.823808835921	1
0	537	64.899534833788	1
0	539	65.56598690333	1
0	541	66.481671400395	1
0	543	66.823553789455	1
0	545	67.001340997691	1
0	547	67.18025481599	1
0	549	67.742292779947	1
0	551	68.89519475492	1
0	553	69.255866325094	1
0	555	69.292924319303	1
0	557	69.398830359285	1
0	559	69.835875926854	1
0	561	70.340152588218	1
0	563	70.499369337203	1
0	565	70.650874961529	1
0	567	70.988459566582	1
0	569	71.627309385402	1
0	571	71.713532528223	1
0	573	71.974693276121	1
0	575	72.087414928843	1
0	577	72.727864063838	1
0	579	73.737175199753	1
0	581	74.090990079846	1
0	583	74.357348502977	1
0	585	74.744921283617	1
0	587	75.068271748858	1
0	589	75.277011587128	1
0	591	75.505571918517	1
0	593	76.443212425814	1
0	595	76.521829598317	1
0	597	76.831668701511	1
0	599	76.982361940989	1
0	601	77.147780738029	1
0	603	77.437116807677	1
0	605	77.716837671799	1
0	607	77.910069084296	1
0	609	77.9158830187	1
0	611	78.106421333389	1
0	613	78.21409949815	1
0	615	78.591812553329	1
0	617	78.915608612926	1
0	619	79.017508032701	1
0	621	79.12028792011	1
0	623	79.265378626087	1
0	625	79.554091142818	1
0	627	79.968984904779	1
0	629	80.136973225801	1
0	631	80.769207507286	1
0	633	80.81287970082	1
0	635	80.845443830368	1
0	637	80.951711070042	1
0	639	80.980787896415	1
0	641	81.233954438192	1
0	643	81.365062842324	1
0	645	81.633181565816	1
0	647	81.873947161544	1
0	649	82.130171082237	1
0	651	82.140432107744	1
0	653	82.458134923358	1
0	655	83.499895567143	1
0	657	83.816650449741	1
0	659	83.932789477386	1
0	661	84.102172627722	1
0	663	84.177197076215	1
0	665	84.857787274023	1
0	667	84.903475361599	1
0	669	85.040927226786	1
0	671	85.071623411242	1
0	673	85.243361876671	1
0	675	86.484704804824	1
0	677	87.152179201992	1
0	679	87.242648975959	1
0	681	87.734918249337	1
0	683	87.965941307201	1
0	685	88.331047155802	1
0	687	88.509269205299	1
0	689	88.540952998388	1
0	691	88.572417549068	1
0	693	89.328202188093	1
0	695	89.458505884876	1
0	697	89.83428814235	1
0	699	90.024326927667	1
0	701	92.053944083648	1
0	703	92.605863919171	1
0	705	92.654424945185	1
0	707	93.35947813211	1
0	709	93.967250777241	1
0	711	93.978735651106	1
0	713	94.03193332365	1
0	715	94.244908701817	1
0	717	94.531698628994	1
0	719	94.586460209559	1
0	721	94.626115322443	1
0	723	95.079062359126	1
0	725	95.644241025102	1
0	727	96.24483697376	1
0	729	96.738852704158	1
0	731	96.897853567599	1
0	733	97.150417856119	1
0	735	97.195655159177	1
0	737	97.352516168204	1
0	739	97.36265220387	1
0	741	97.384154819164	1
0	743	98.599108870805	1
0	745	98.95774044069	1
0	747	99.097922210613	1
0	749	99.279211932167	1
0	751	99.44266907061	1
0	753	99.826769331754	1
0	755	99.842343097409	1
0	757	100.446174918271	1
0	759	100.582648471709	1
0	761	101.69563664928	1
0	763	101.700666979078	1
0	765	102.281640150325	1
0	767	102.360338943075	1
0	769	102.363873912651	1
0	771	102.798212137248	1
0	773	102.932087983404	1
0	775	103.797471509035	1
0	777	104.190261018242	1
0	779	104.606148423848	1
0	781	104.662636916414	1
0	783	104.787020679212	1
0	785	105.007860009208	1
0	787	105.209598164258	1
0	789	105.226359180125	1
0	791	105.350552856927	1
0	793	105.417494619357	1
0	795	105.476843471595	1
0	797	105.482452112721	1
0	799	105.538707798082	1
0	801	106.012231614714	1
0	803	106.199010817908	1
0	805	106.275062529451	1
0	807	106.897871847584	1
0	809	107.024968977991	1
0	811	107.890332264513	1
0	813	108.679997923278	1
0	815	108.961139538595	1
0	817	109.326778579598	1
0	819	109.599167787795	1
0	821	109.608874829189	1
0	823	110.068124197069	1
0	825	110.122111399535	1
0	827	110.330071330396	1
0	829	110.621515977824	1
0	831	110.637020849563	1
0	833	110.895297940567	1
0	835	111.25558921253	1
0	837	111.337089633633	1
0	839	112.800829500031	1
0	841	113.617233976805	1
0	843	113.710524318296	1
0	845	113.996073230559	1
0	847	114.337052179136	1
0	849	114.567176075508	1
0	851	115.166327665755	1
0	853	115.433741238828	1
0	855	115.850644357961	1
0	857	116.24357996937	1
0	859	117.244960269526	1
0	861	117.357126218297	1
0	863	117.599520234317	1
0	865	117.751879771123	1
0	867	117.823505632977	1
0	869	117.894163005003	1
0	871	117.969642588937	1
0	873	118.031452203482	1
0	875	118.105509984122	1
0	877	118.972232661692	1
0	879	119.225126294316	1
0	881	119.628730524286	1
0	883	119.809234220243	1
0	885	120.011507591134	1
0	887	121.065851195295	1
0	889	121.143255024477	1
0	891	121.485596395335	1
0	893	121.573648690912	1
0	895	121.600394977911	1
0	897	121.618329266786	1
0	899	121.635750975421	1
0	901	121.806720245013	1
0	903	122.00745436212	1
0	905	122.119555300438	1
0	907	122.758156328797	1
0	909	123.115713759893	1
0	911	124.239722144041	1
0	913	124.382047031141	1
0	915	124.670478902612	1
0	917	124.729869223212	1
0	919	124.964461939475	1
0	921	124.971958445469	1
0	923	125.550466486533	1
0	925	125.571351787855	1
0	927	125.979931305147	1
0	929	126.321192856809	1
0	931	126.516562076384	1
0	933	126.697936441885	1
0	935	127.037043105658	1
0	937	127.267779045987	1
0	939	127.547997145769	1
0	941	128.228949150504	1
0	943	128.605210131531	1
0	945	129.997105889443	1
0	947	130.187284895261	1
0	949	130.260632201874	1
0	951	130.443282075995	1
0	953	130.769653406079	1
0	955	131.48032885733	1
0	957	131.572010327874	1
0	959	131.616289137741	1
0	961	131.622549303324	1
0	963	131.700654726788	1
0	965	132.126769763464	1
0	967	132.766838749706	1
0	969	132.88254505792	1
0	971	133.586898186349	1
0	973	133.731989702596	1
0	975	134.043344725243	1
0	977	134.309595303788	1
0	979	134.427367212244	1
0	981	134.960810213294	1
0	983	135.180820515244	1
0	985	135.478271803113	1
0	987	135.478288408682	1
0	989	136.096534780946	1
0	991	136.208663769091	1
0	993	136.304536165553	1
0	995	136.470787414267	1
0	997	136.950703246819	1
0	999	137.600432351081	1
0	1001	137.662036681702	1
0	1003	138.003753976904	1
0	1005	138.919709377782	1
0	1007	139.102422761595	1
0	1009	139.451356746623	1
0	1011	139.649507670548	1
0	1013	139.72232321865	1
0	1015	140.188722099993	1
0	1017	141.07206618322	1
0	1019	141.150258222033	1
0	1021	141.544010619923	1
0	1023	142.180834616106	1
0	1025	142.268720053652	1
0	1027	142.381648859108	1
0	1029	142.453625914939	1
0	1031	143.400754577364	1
0	1033	143.619822876936	1
0	1035	143.811279458614	1
0	1037	143.819078782172	1
0	1039	144.192084015557	1
0	1041	144.261841521072	1
0	1043	144.311903913442	1
0	1045	144.477755424638	1
0	1047	144.871047135086	1
0	1049	145.011650077879	1
0	1051	145.323411768853	1
0	1053	145.510260561782	1
0	1055	145.582836455213	1
0	1057	145.680401260606	1
0	1059	145.742308658687	1
0	1061	146.007444355497	1
0	1063	146.501867207445	1
0	1065	147.100078967828	1
0	1067	147.512482953969	1
0	1069	147.549992730946	1
0	1071	147.88703088081	1
0	1073	148.10558803363	1
0	1075	148.202847767676	1
0	1077	148.245340378115	1
0	1079	148.303018810368	1
0	1081	148.681562612414	1
0	1083	149.047262415968	1
0	1085	149.198546395943	1
0	1087	149.385157471667	1
0	1089	149.635170943861	1
0	1091	150.185749964743	1
0	1093	150.246487593852	1
0	1095	150.315260891414	1
0	1097	150.362203622529	1
0	1099	150.416285912402	1
0	1101	150.61714808966	1
0	1103	150.657150276642	1
0	1105	150.78898689379	1
0	1107	151.173114199984	1
0	1109	152.019304984509	1
0	1111	152.028582871977	1
0	1113	152.463449304905	1
0	1115	152.875752209231	1
0	1117	153.290041137931	1
0	1119	153.319191441441	1
0	1121	154.021339029638	1
0	1123	154.094898457431	1
0	1125	154.121031032409	1
0	1127	154.536025972254	1
0	1129	154.777043501054	1
0	1131	155.171731378543	1
0	1133	155.435195902158	1
0	1135	155.449202225251	1
0	1137	156.429751145498	1
0	1139	156.500147900275	1
0	1141	156.603803775388	1
0	1143	156.705250189841	1
0	1145	156.787908570952	1
0	1147	157.127184114709	1
0	1149	157.15889026694	1
0	1151	157.178424126376	1
0	1153	157.183393954702	1
0	1155	157.42673626137	1
0	1157	158.222503816026	1
0	1159	158.225288723339	1
0	1161	158.557811649603	1
0	1163	159.094808530947	1
0	1165	159.55615714529	1
0	1167	160.802948473959	1
0	1169	160.902221438312	1
0	1171	161.26692858032	1
0	1173	161.531792743807	1
0	1175	161.591925402333	1
0	1177	161.611753005541	1
0	1179	161.827226949573	1
0	1181	162.026669274438	1
0	1183	162.287238993878	1
0	1185	163.425446128804	1
0	1187	163.890149632551	1
0	1189	164.517616604338	1
0	1191	164.797400160919	1
0	1193	164.921219120937	1
0	1195	164.995143867601	1
0	1197	165.972820160756	1
0	1199	166.155003947342	1
0	1201	166.234077081193	1
0	1203	166.867343713508	1
0	1205	167.76200391615	1
0	1207	167.965344516767	1
0	1209	168.81633657478	1
0	1211	169.193507673451	1
0	1213	169.675145302371	1
0	1215	169.874898048362	1
0	1217	170.173537141372	1
0	1219	170.543401280281	1
0	1221	171.165529719211	1
0	1223	171.372360080565	1
0	1225	171.476386071702	1
0	1227	172.034815564597	1
0	1229	172.601846074026	1
0	1231	172.666674939004	1
0	1233	172.955278516981	1
0	1235	173.400551261776	1
0	1237	173.404548835225	1
0	1239	174.502446034454	1
0	1241	174.630406778065	1
0	1243	175.225231449446	1
0	1245	175.273331677792	1
0	1247	175.72815235674	1
0	1249	176.930537253202	1
0	1251	178.191095081076	1
0	1253	178.386334283784	1
0	1255	178.806536992872	1
0	1257	179.01292003641	1
0	1259	179.014136932806	1
0	1261	179.320193059192	1
0	1263	179.414392428611	1
0	1265	179.552329823944	1
0	1267	179.710869992435	1
0	1269	179.755037503629	1
0	1271	179.922739804626	1
0	1273	180.440729818549	1
0	1275	180.546808791128	1
0	1277	180.609968777589	1
0	1279	180.763783170378	1
0	1281	180.978596765776	1
0	1283	181.017170836959	1
0	1285	181.093374250464	1
0	1287	182.277664230732	1
0	1289	182.308554739848	1
0	1291	182.464878386173	1
0	1293	183.059445488506	1
0	1295	183.312086379357	1
0	1297	184.394768680852	1
0	1299	184.521066670267	1
0	1301	185.493055560337	1
0	1303	185.959643868443	1
0	1305	186.670760142627	1
0	1307	186.829748616409	1
0	1309	187.275977542711	1
0	1311	187.409522344533	1
0	1313	187.531077209236	1
0	1315	187.684074459391	1
0	1317	187.70944830692	1
0	1319	187.817236478458	1
0	1321	187.974126774555	1
0	1323	188.421916423813	1
0	1325	188.501197563054	1
0	1327	189.28316910375	1
0	1329	189.325806757168	1
0	1331	189.443857480505	1
0	1333	189.46032969227	1
0	1335	190.376787625972	1
0	1337	190.764731983611	1
0	1339	190.768945960984	1
0	1341	190.772393936047	1
0	1343	191.001121041311	1
0	1345	191.442782288709	1
0	1347	191.55175495438	1
0	1349	191.599434908277	1
0	1351	192.242750547631	1
0	1353	192.267609229507	1
0	1355	192.354163042611	1
0	1357	192.382325406796	1
0	1359	192.721739037077	1
0	1361	193.056205263649	1
0	1363	193.555094997851	1
0	1365	193.639552204592	1
0	1367	193.809320567082	1
0	1369	193.973017881512	1
0	1371	194.391478608891	1
0	1373	194.63598410816	1
0	1375	195.166870055123	1
0	1377	195.757887324801	1
0	1379	195.90083089958	1
0	1381	196.290364590261	1
0	1383	196.320824815443	1
0	1385	196.415372824058	1
0	1387	196.504143386032	1
0	1389	196.546433751357	1
0	1391	196.815332512863	1
0	1393	196.832422472603	1
0	1395	197.026574883816	1
0	1397	197.134263279329	1
0	1399	197.335054140925	1
0	1401	197.426245608694	1
0	1403	197.610277335572	1
0	1405	197.792996672169	1
0	1407	198.016071629702	1
0	1409	198.360994046027	1
0	1411	198.536021177338	1
0	1413	198.892870052738	1
0	1415	199.467322730031	1
0	1417	199.567343731544	1
0	1419	199.737794876667	1
0	1421	199.88117027292	1
1	3	0.33886235137	1
1	13	0.608430467915	1
1	23	0.985209695329	1
1	33	1.543090958951	1
1	43	1.820057898392	1
1	53	2.405521499157	1
1	63	2.641681841152	1
1	73	3.205371057413	1
1	83	3.370685603414	1
1	93	3.663787531332	1
1	103	3.975235321531	1
1	113	4.120773770647	1
1	125	4.320973770647	1
2	6	0.43896235137	200
2	16	0.708530467915	200
2	26	1.085309695329	200
2	36	1.643190958951	200
2	46	1.920157898392	200
2	56	2.505621499157	200
2	66	2.741781841152	200
2	78	3.305471057413	200
2	86	3.470785603414	200
2	96	3.763887531332	200
2	108	4.075335321531	200
2	118	4.220873770647	200
2	128	4.421073770647	200
3	7	0.43896235137	1
3	17	0.708530467915	1
3	27	1.085309695329	1
3	37	1.643190958951	1
3	47	1.920157898392	1
3	57	2.505621499157	1
3	67	2.741781841152	1
3	79	3.305471057413	1
3	87	3.470785603414	1
3	97	3.763887531332	1
3	109	4.075335321531	1
3	119	4.220873770647	1
3	129	4.421073770647	1
4	136	4.983849998792	2
4	138	5.97832368277	3
4	140	6.073830525023	4
4	142	6.218911156508	5
4	144	6.413745060983	6
4	146	6.88441389627	7
4	148	7.386077256367	8
4	150	7.611879490361	9
4	152	7.808044260527	10
4	154	8.059874116397	11
4	156	8.209535719102	12
4	158	8.989011944857	13
4	160	9.531522724139	14
4	162	9.553628330779	15
4	164	9.677101729652	16
4	166	9.704450037489	17
4	168	10.017833789981	18
4	170	10.023961466501	19
4	172	10.161735907678	20
4	174	10.69798220671	21
4	176	11.643033185313	22
4	178	12.094768462904	23
4	180	12.140137719003	24
4	182	12.752231996386	25
4	184	13.36449966116	26
4	186	14.518066221903	27
4	188	14.710578973706	28
4	190	15.192150840824	29
4	192	15.676351463292	30
4	194	15.86203030118	31
4	196	16.082519627537	32
4	198	16.537480419734	33
4	200	16.878262102247	34
4	202	16.916024425078	35
4	204	17.298592735745	36
4	206	17.60502229805	37
4	208	17.866718656563	38
4	210	17.913137560713	39
4	212	18.144387958253	40
4	214	19.012714101649	41
4	216	19.439123505677	42
4	218	19.660471693204	43
4	220	19.694055541394	44
4	222	19.854725257462	45
4	224	20.047233668071	46
4	226	20.139417773717	47
4	228	20.201278758326	48
4	230	20.647755206052	49
4	232	21.048342261439	50
4	234	21.231066988394	51
4	236	21.304281535615	52
4	238	21.556381947299	53
4	240	21.599965355487	54
4	242	21.605655926247	55
4	244	21.72318716945	56
4	246	22.01160145117	57
4	248	22.060242398004	58
4	250	22.344341401156	59
4	252	22.419773980778	60
4	254	22.707638373988	61
4	256	22.85420548878	62
4	258	23.717579995163	63
4	260	24.416254007427	64
4	262	24.759795693837	65
4	264	24.939119516883	66
4	266	25.072775065398	67
4	268	25.357623440447	68
4	270	25.529983162469	69
4	272	26.227888480977	70
4	274	26.586720820814	71
4	276	26.618089188547	72
4	278	26.636723775687	73
4	280	27.686787881023	74
4	282	28.016461621288	75
4	284	28.334111860734	76
4	286	28.66729109444	77
4	288	28.723518914245	78
4	290	28.79438092607	79
4	292	28.927402134656	80
4	294	28.968810741185	81
4	296	29.385523548122	82
4	298	29.499212137407	83
4	300	29.780030605338	84
4	302	29.915661223405	85
4	304	30.033594990596	86
4	306	30.286923328654	87
4	308	30.298678275578	88
4	310	30.47187556882	89
4	312	30.77363687037	90
4	314	32.109985924223	91
4	316	33.067869916839	92
4	318	33.100160449286	93
4	320	33.417508373292	94
4	322	33.487798828925	95
4	324	33.790204602551	96
4	326	33.842978666179	97
4	328	35.451008771252	98
4	330	35.76863158578	99
4	332	36.030206341868	100
4	334	36.117830501848	101
4	336	36.278349904973	102
4	338	36.46673237927	103
4	340	36.659866679751	104
4	342	36.743949782295	105
4	344	37.037009004516	106
4	346	37.08894724136	107
4	348	37.212697610337	108
4	350	37.247784233275	109
4	352	37.584734723735	110
4	354	37.90515638288	111
4	356	38.019623135892	112
4	358	38.064236816668	113
4	360	38.51622741665	114
4	362	38.581891595602	115
4	364	39.478048563158	116
4	366	39.61605275048	117
4	368	39.941933564743	118
4	370	40.458033062058	119
4	372	40.462132435587	120
4	374	40.492775900044	121
4	376	40.785306480291	122
4	378	41.331252156076	123
4	380	41.667196465802	124
4	382	41.697506898395	125
4	384	42.769583410098	126
4	386	43.894292847973	127
4	388	44.525889238211	128
4	390	44.71559021713	129
4	392	44.92936529513	130
4	394	46.057943480481	131
4	396	46.075141558408	132
4	398	46.353685107478	133
4	400	46.53366917347	134
4	402	46.936942755116	135
4	404	46.94299979356	136
4	406	46.954992683277	137
4	408	47.129856199937	138
4	410	47.229579272226	139
4	412	48.39705030908	140
4	414	48.435467338673	141
4	416	48.569093177249	142
4	418	48.674446004063	143
4	420	48.871139889372	144
4	422	48.9090564803	145
4	424	49.259118538265	146
4	426	49.373928822924	147
4	428	50.011199982025	148
4	430	50.171665294752	149
4	432	50.922838829678	150
4	434	50.942728050123	151
4	436	51.016046684548	152
4	438	51.369803542668	153
4	440	51.619656597488	154
4	442	51.870485857079	155
4	444	52.471458013831	156
4	446	52.56398246586	157
4	448	52.777356847025	158
4	450	52.999584532159	159
4	452	53.745259239252	160
4	454	53.774854331777	161
4	456	54.536945684165	162
4	458	54.794314376487	163
4	460	54.820345521189	164
4	462	55.615122299792	165
4	464	55.712724424451	166
4	466	55.827792488681	167
4	468	55.83061271388	168
4	470	56.160866486907	169
4	472	56.715064782208	170
4	474	56.757463996276	171
4	476	57.06999819253	172
4	478	57.447978335563	173
4	480	58.000363077009	174
4	482	58.102859327117	175
4	484	58.195114644246	176
4	486	58.255819775816	177
4	488	58.407979812793	178
4	490	58.672918525381	179
4	492	58.914357745321	180
4	494	58.92045148296	181
4	496	58.974527158555	182
4	498	59.504249480279	183
4	500	59.642768749092	184
4	502	59.64418071124	185
4	504	59.691683163109	186
4	506	60.031473405701	187
4	508	60.284398315346	188
4	510	60.378814813602	189
4	512	60.743767409633	190
4	514	61.142394771758	191
4	516	61.244498793229	192
4	518	62.227041746543	193
4	520	62.397412992587	194
4	522	62.483219284339	195
4	524	62.906526607127	196
4	526	63.164044497476	197
4	528	63.315347639452	198
4	530	63.584324900688	199
4	532	64.263444973446	200
4	534	64.518211216915	201
4	536	64.823808835921	202
4	538	64.899534833788	203
4	540	65.56598690333	204
4	542	66.481671400395	205
4	544	66.823553789455	206
4	546	67.001340997691	207
4	548	67.18025481599	208
4	550	67.742292779947	209
4	552	68.89519475492	210
4	554	69.255866325094	211
4	556	69.292924319303	212
4	558	69.398830359285	213
4	560	69.835875926854	214
4	562	70.340152588218	215
4	564	70.499369337203	216
4	566	70.650874961529	217
4	568	70.988459566582	218
4	570	71.627309385402	219
4	572	71.713532528223	220
4	574	71.974693276121	221
4	576	72.087414928843	222
4	578	72.727864063838	223
4	580	73.737175199753	224
4	582	74.090990079846	225
4	584	74.357348502977	226
4	586	74.744921283617	227
4	588	75.068271748858	228
4	590	75.277011587128	229
4	592	75.505571918517	230
4	594	76.443212425814	231
4	596	76.521829598317	232
4	598	76.831668701511	233
4	600	76.982361940989	234
4	602	77.147780738029	235
4	604	77.437116807677	236
4	606	77.716837671799	237
4	608	77.910069084296	238
4	610	77.9158830187	239
4	612	78.106421333389	240
4	614	78.21409949815	241
4	616	78.591812553329	242
4	618	78.915608612926	243
4	620	79.017508032701	244
4	622	79.12028792011	245
4	624	79.265378626087	246
4	626	79.554091142818	247
4	628	79.968984904779	248
4	630	80.136973225801	249
4	632	80.769207507286	250
4	634	80.81287970082	251
4	636	80.845443830368	252
4	638	80.951711070042	253
4	640	80.980787896415	254
4	642	81.233954438192	255
4	644	81.365062842324	256
4	646	81.633181565816	257
4	648	81.873947161544	258
4	650	82.130171082237	259
4	652	82.140432107744	260
4	654	82.458134923358	261
4	656	83.499895567143	262
4	658	83.816650449741	263
4	660	83.932789477386	264
4	662	84.102172627722	265
4	664	84.177197076215	266
4	666	84.857787274023	267
4	668	84.903475361599	268
4	670	85.040927226786	269
4	672	85.071623411242	270
4	674	85.243361876671	271
4	676	86.484704804824	272
4	678	87.152179201992	273
4	680	87.242648975959	274
4	682	87.734918249337	275
4	684	87.965941307201	276
4	686	88.331047155802	277
4	688	88.509269205299	278
4	690	88.540952998388	279
4	692	88.572417549068	280
4	694	89.328202188093	281
4	696	89.458505884876	282
4	698	89.83428814235	283
4	700	90.024326927667	284
4	702	92.053944083648	285
4	704	92.605863919171	286
4	706	92.654424945185	287
4	708	93.35947813211	288
4	710	93.967250777241	289
4	712	93.978735651106	290
4	714	94.03193332365	291
4	716	94.244908701817	292
4	718	94.531698628994	293
4	720	94.586460209559	294
4	722	94.626115322443	295
4	724	95.079062359126	296
4	726	95.644241025102	297
4	728	96.24483697376	298
4	730	96.738852704158	299
4	732	96.897853567599	300
4	734	97.150417856119	301
4	736	97.195655159177	302
4	738	97.352516168204	303
4	740	97.36265220387	304
4	742	97.384154819164	305
4	744	98.599108870805	306
4	746	98.95774044069	307
4	748	99.097922210613	308
4	750	99.279211932167	309
4	752	99.44266907061	310
4	754	99.826769331754	311
4	756	99.842343097409	312
4	758	100.446174918271	313
4	760	100.582648471709	314
4	762	101.69563664928	315
4	764	101.700666979078	316
4	766	102.281640150325	317
4	768	102.360338943075	318
4	770	102.363873912651	319
4	772	102.798212137248	320
4	774	102.932087983404	321
4	776	103.797471509035	322
4	778	104.190261018242	323
4	780	104.606148423848	324
4	782	104.662636916414	325
4	784	104.787020679212	326
4	786	105.007860009208	327
4	788	105.209598164258	328
4	790	105.226359180125	329
4	792	105.350552856927	330
4	794	105.417494619357	331
4	796	105.476843471595	332
4	798	105.482452112721	333
4	800	105.538707798082	334
4	802	106.012231614714	335
4	804	106.199010817908	336
4	806	106.275062529451	337
4	808	106.897871847584	338
4	810	107.024968977991	339
4	812	107.890332264513	340
4	814	108.679997923278	341
4	816	108.961139538595	342
4	818	109.326778579598	343
4	820	109.599167787795	344
4	822	109.608874829189	345
4	824	110.068124197069	346
4	826	110.122111399535	347
4	828	110.330071330396	348
4	830	110.621515977824	349
4	832	110.637020849563	350
4	834	110.895297940567	351
4	836	111.25558921253	352
4	838	111.337089633633	353
4	840	112.800829500031	354
4	842	113.617233976805	355
4	844	113.710524318296	356
4	846	113.996073230559	357
4	848	114.337052179136	358
4	850	114.567176075508	359
4	852	115.166327665755	360
4	854	115.433741238828	361
4	856	115.850644357961	362
4	858	116.24357996937	363
4	860	117.244960269526	364
4	862	117.357126218297	365
4	864	117.599520234317	366
4	866	117.751879771123	367
4	868	117.823505632977	368
4	870	117.894163005003	369
4	872	117.969642588937	370
4	874	118.031452203482	371
4	876	118.105509984122	372
4	878	118.972232661692	373
4	880	119.225126294316	374
4	882	119.628730524286	375
4	884	119.809234220243	376
4	886	120.011507591134	377
4	888	121.065851195295	378
4	890	121.143255024477	379
4	892	121.485596395335	380
4	894	121.573648690912	381
4	896	121.600394977911	382
4	898	121.618329266786	383
4	900	121.635750975421	384
4	902	121.806720245013	385
4	904	122.00745436212	386
4	906	122.119555300438	387
4	908	122.758156328797	388
4	910	123.115713759893	389
4	912	124.239722144041	390
4	914	124.382047031141	391
4	916	124.670478902612	392
4	918	124.729869223212	393
4	920	124.964461939475	394
4	922	124.971958445469	395
4	924	125.550466486533	396
4	926	125.571351787855	397
4	928	125.979931305147	398
4	930	126.321192856809	399
4	932	126.516562076384	400
4	934	126.697936441885	401
4	936	127.037043105658	402
4	938	127.267779045987	403
4	940	127.547997145769	404
4	942	128.228949150504	405
4	944	128.605210131531	406
4	946	129.997105889443	407
4	948	130.187284895261	408
4	950	130.260632201874	409
4	952	130.443282075995	410
4	954	130.769653406079	411
4	956	131.48032885733	412
4	958	131.572010327874	413
4	960	131.616289137741	414
4	962	131.622549303324	415
4	964	131.700654726788	416
4	966	132.126769763464	417
4	968	132.766838749706	418
4	970	132.88254505792	419
4	972	133.586898186349	420
4	974	133.731989702596	421
4	976	134.043344725243	422
4	978	134.309595303788	423
4	980	134.427367212244	424
4	982	134.960810213294	425
4	984	135.180820515244	426
4	986	135.478271803113	427
4	988	135.478288408682	428
4	990	136.096534780946	429
4	992	136.208663769091	430
4	994	136.304536165553	431
4	996	136.470787414267	432
4	998	136.950703246819	433
4	1000	137.600432351081	434
4	1002	137.662036681702	435
4	1004	138.003753976904	436
4	1006	138.919709377782	437
4	1008	139.102422761595	438
4	1010	139.451356746623	439
4	1012	139.649507670548	440
4	1014	139.72232321865	441
4	1016	140.188722099993	442
4	1018	141.07206618322	443
4	1020	141.150258222033	444
4	1022	141.544010619923	445
4	1024	142.180834616106	446
4	1026	142.268720053652	447
4	1028	142.381648859108	448
4	1030	142.453625914939	449
4	1032	143.400754577364	450
4	1034	143.619822876936	451
4	1036	143.811279458614	452
4	1038	143.819078782172	453
4	1040	144.192084015557	454
4	1042	144.261841521072	455
4	1044	144.311903913442	456
4	1046	144.477755424638	457
4	1048	144.871047135086	458
4	1050	145.011650077879	459
4	1052	145.323411768853	460
4	1054	145.510260561782	461
4	1056	145.582836455213	462
4	1058	145.680401260606	463
4	1060	145.742308658687	464
4	1062	146.007444355497	465
4	1064	146.501867207445	466
4	1066	147.100078967828	467
4	1068	147.512482953969	468
4	1070	147.549992730946	469
4	1072	147.88703088081	470
4	1074	148.10558803363	471
4	1076	148.202847767676	472
4	1078	148.245340378115	473
4	1080	148.303018810368	474
4	1082	148.681562612414	475
4	1084	149.047262415968	476
4	1086	149.198546395943	477
4	1088	149.385157471667	478
4	1090	149.635170943861	479
4	1092	150.185749964743	480
4	1094	150.246487593852	481
4	1096	150.315260891414	482
4	1098	150.362203622529	483
4	1100	150.416285912402	484
4	1102	150.61714808966	485
4	1104	150.657150276642	486
4	1106	150.78898689379	487
4	1108	151.173114199984	488
4	1110	152.019304984509	489
4	1112	152.028582871977	490
4	1114	152.463449304905	491
4	1116	152.875752209231	492
4	1118	153.290041137931	493
4	1120	153.319191441441	494
4	1122	154.021339029638	495
4	1124	154.094898457431	496
4	1126	154.121031032409	497
4	1128	154.536025972254	498
4	1130	154.777043501054	499
4	1132	155.171731378543	500
4	1134	155.435195902158	501
4	1136	155.449202225251	502
4	1138	156.429751145498	503
4	1140	156.500147900275	504
4	1142	156.603803775388	505
4	1144	156.705250189841	506
4	1146	156.787908570952	507
4	1148	157.127184114709	508
4	1150	157.15889026694	509
4	1152	157.178424126376	510
4	1154	157.183393954702	511
4	1156	157.42673626137	512
4	1158	158.222503816026	513
4	1160	158.225288723339	514
4	1162	158.557811649603	515
4	1164	159.094808530947	516
4	1166	159.55615714529	517
4	1168	160.802948473959	518
4	1170	160.902221438312	519
4	1172	161.26692858032	520
4	1174	161.531792743807	521
4	1176	161.591925402333	522
4	1178	161.611753005541	523
4	1180	161.827226949573	524
4	1182	162.026669274438	525
4	1184	162.287238993878	526
4	1186	163.425446128804	527
4	1188	163.890149632551	528
4	1190	164.517616604338	529
4	1192	164.797400160919	530
4	1194	164.921219120937	531
4	1196	164.995143867601	532
4	1198	165.972820160756	533
4	1200	166.155003947342	534
4	1202	166.234077081193	535
4	1204	166.867343713508	536
4	1206	167.76200391615	537
4	1208	167.965344516767	538
4	1210	168.81633657478	539
4	1212	169.193507673451	540
4	1214	169.675145302371	541
4	1216	169.874898048362	542
4	1218	170.173537141372	543
4	1220	170.543401280281	544
4	1222	171.165529719211	545
4	1224	171.372360080565	546
4	1226	171.476386071702	547
4	1228	172.034815564597	548
4	1230	172.601846074026	549
4	1232	172.666674939004	550
4	1234	172.955278516981	551
4	1236	173.400551261776	552
4	1238	173.404548835225	553
4	1240	174.502446034454	554
4	1242	174.630406778065	555
4	1244	175.225231449446	556
4	1246	175.273331677792	557
4	1248	175.72815235674	558
4	1250	176.930537253202	559
4	1252	178.191095081076	560
4	1254	178.386334283784	561
4	1256	178.806536992872	562
4	1258	179.01292003641	563
4	1260	179.014136932806	564
4	1262	179.320193059192	565
4	1264	179.414392428611	566
4	1266	179.552329823944	567
4	1268	179.710869992435	568
4	1270	179.755037503629	569
4	1272	179.922739804626	570
4	1274	180.440729818549	571
4	1276	180.546808791128	572
4	1278	180.609968777589	573
4	1280	180.763783170378	574
4	1282	180.978596765776	575
4	1284	181.017170836959	576
4	1286	181.093374250464	577
4	1288	182.277664230732	578
4	1290	182.308554739848	579
4	1292	182.464878386173	580
4	1294	183.059445488506	581
4	1296	183.312086379357	582
4	1298	184.394768680852	583
4	1300	184.521066670267	584
4	1302	185.493055560337	585
4	1304	185.959643868443	586
4	1306	186.670760142627	587
4	1308	186.829748616409	588
4	1310	187.275977542711	589
4	1312	187.409522344533	590
4	1314	187.531077209236	591
4	1316	187.684074459391	592
4	1318	187.70944830692	593
4	1320	187.817236478458	594
4	1322	187.974126774555	595
4	1324	188.421916423813	596
4	1326	188.501197563054	597
4	1328	189.28316910375	598
4	1330	189.325806757168	599
4	1332	189.443857480505	600
4	1334	189.46032969227	601
4	1336	190.376787625972	602
4	1338	190.764731983611	603
4	1340	190.768945960984	604
4	1342	190.772393936047	605
4	1344	191.001121041311	606
4	1346	191.442782288709	607
4	1348	191.55175495438	608
4	1350	191.599434908277	609
4	1352	192.242750547631	610
4	1354	192.267609229507	611
4	1356	192.354163042611	612
4	1358	192.382325406796	613
4	1360	192.721739037077	614
4	1362	193.056205263649	615
4	1364	193.555094997851	616
4	1366	193.639552204592	617
4	1368	193.809320567082	618
4	1370	193.973017881512	619
4	1372	194.391478608891	620
4	1374	194.63598410816	621
4	1376	195.166870055123	622
4	1378	195.757887324801	623
4	1380	195.90083089958	624
4	1382	196.290364590261	625
4	1384	196.320824815443	626
4	1386	196.415372824058	627
4	1388	196.504143386032	628
4	1390	196.546433751357	629
4	1392	196.815332512863	630
4	1394	196.832422472603	631
4	1396	197.026574883816	632
4	1398	197.134263279329	633
4	1400	197.335054140925	634
4	1402	197.426245608694	635
4	1404	197.610277335572	636
4	1406	197.792996672169	637
4	1408	198.016071629702	638
4	1410	198.360994046027	639
4	1412	198.536021177338	640
4	1414	198.892870052738	641
4	1416	199.467322730031	642
4	1418	199.567343731544	643
4	1420	199.737794876667	644
4	1422	199.88117027292	645

